[Format]      =  4.0
[Frequency]   =  0
[Precision]   =  1e-008
[MinAngle]    =  30
[DoSmartMesh] =  1
[Depth]       =  60
[LengthUnits] =  millimeters
[ProblemType] =  planar
[Coordinates] =  cartesian
[ACSolver]    =  0
[PrevType]    =  0
[PrevSoln]    =  ""
[Comment]     =  "Add comments here."
[PointProps]   = 0
[BdryProps]   = 4
  <BeginBdry>
    <BdryName> = "A=0"
    <BdryType> = 0
    <A_0> = 0
    <A_1> = 0
    <A_2> = 0
    <Phi> = 0
    <c0> = 0
    <c0i> = 0
    <c1> = 0
    <c1i> = 0
    <Mu_ssd> = 0
    <Sigma_ssd> = 0
    <innerangle> = 0
    <outerangle> = 0
  <EndBdry>
  <BeginBdry>
    <BdryName> = "per1"
    <BdryType> = 5
    <A_0> = 0
    <A_1> = 0
    <A_2> = 0
    <Phi> = 0
    <c0> = 0
    <c0i> = 0
    <c1> = 0
    <c1i> = 0
    <Mu_ssd> = 0
    <Sigma_ssd> = 0
    <innerangle> = 0
    <outerangle> = 0
  <EndBdry>
  <BeginBdry>
    <BdryName> = "per2"
    <BdryType> = 5
    <A_0> = 0
    <A_1> = 0
    <A_2> = 0
    <Phi> = 0
    <c0> = 0
    <c0i> = 0
    <c1> = 0
    <c1i> = 0
    <Mu_ssd> = 0
    <Sigma_ssd> = 0
    <innerangle> = 0
    <outerangle> = 0
  <EndBdry>
  <BeginBdry>
    <BdryName> = "per3"
    <BdryType> = 5
    <A_0> = 0
    <A_1> = 0
    <A_2> = 0
    <Phi> = 0
    <c0> = 0
    <c0i> = 0
    <c1> = 0
    <c1i> = 0
    <Mu_ssd> = 0
    <Sigma_ssd> = 0
    <innerangle> = 0
    <outerangle> = 0
  <EndBdry>
[BlockProps]  = 4
  <BeginBlock>
    <BlockName> = "zrak"
    <Mu_x> = 1
    <Mu_y> = 1
    <H_c> = 0
    <H_cAngle> = 0
    <J_re> = 0
    <J_im> = 0
    <Sigma> = 0
    <d_lam> = 0
    <Phi_h> = 0
    <Phi_hx> = 0
    <Phi_hy> = 0
    <LamType> = 0
    <LamFill> = 1
    <NStrands> = 0
    <WireD> = 0
    <BHPoints> = 0
  <EndBlock>
  <BeginBlock>
    <BlockName> = "M330-35A"
    <Mu_x> = 1
    <Mu_y> = 1
    <H_c> = 0
    <H_cAngle> = 0
    <J_re> = 0
    <J_im> = 0
    <Sigma> = 0
    <d_lam> = 0
    <Phi_h> = 0
    <Phi_hx> = 0
    <Phi_hy> = 0
    <LamType> = 0
    <LamFill> = 1
    <NStrands> = 0
    <WireD> = 0
    <BHPoints> = 19
      0	0
      0.10000000000000001	33.399999999999999
      0.20000000000000001	43.600000000000001
      0.29999999999999999	50.799999999999997
      0.40000000000000002	57.200000000000003
      0.5	63.600000000000001
      0.59999999999999998	70.400000000000006
      0.69999999999999996	78.099999999999994
      0.80000000000000004	87.200000000000003
      0.90000000000000002	98.700000000000003
      1	114
      1.1000000000000001	136
      1.2	172
      1.3	242
      1.3999999999999999	428
      1.5	1027
      1.6000000000000001	2576
      1.7	5409
      1.8	9677
  <EndBlock>
  <BeginBlock>
    <BlockName> = "baker"
    <Mu_x> = 1
    <Mu_y> = 1
    <H_c> = 0
    <H_cAngle> = 0
    <J_re> = 0
    <J_im> = 0
    <Sigma> = 0
    <d_lam> = 0
    <Phi_h> = 0
    <Phi_hx> = 0
    <Phi_hy> = 0
    <LamType> = 0
    <LamFill> = 1
    <NStrands> = 0
    <WireD> = 0
    <BHPoints> = 0
  <EndBlock>
  <BeginBlock>
    <BlockName> = "Pure Iron"
    <Mu_x> = 14872
    <Mu_y> = 14872
    <H_c> = 0
    <H_cAngle> = 0
    <J_re> = 0
    <J_im> = 0
    <Sigma> = 10.44
    <d_lam> = 0
    <Phi_h> = 0
    <Phi_hx> = 0
    <Phi_hy> = 0
    <LamType> = 0
    <LamFill> = 1
    <NStrands> = 0
    <WireD> = 0
    <BHPoints> = 21
      0	0
      0.22706499999999999	13.898400000000001
      0.45412999999999998	27.796700000000001
      0.68119499999999999	42.397399999999998
      0.90825999999999996	61.415700000000001
      1.13533	82.382400000000004
      1.36239	144.66900000000001
      1.58935	897.75999999999999
      1.81236	4581.7399999999998
      2.01004	17736.200000000001
      2.1331600000000002	41339.300000000003
      2.1999900000000001	68321.800000000003
      2.2547899999999998	95685.5
      2.2999299999999998	123355
      2.3425099999999999	151083
      2.3787600000000002	178954
      2.4150100000000001	206825
      2.45126	234696
      2.4874999999999998	262568
      2.5237500000000002	290439
      2.5600000000000001	318310
  <EndBlock>
[CircuitProps]  = 2
  <BeginCircuit>
    <CircuitName> = "A"
    <TotalAmps_re> = 8
    <TotalAmps_im> = 0
    <CircuitType> = 1
  <EndCircuit>
  <BeginCircuit>
    <CircuitName> = "B"
    <TotalAmps_re> = 8
    <TotalAmps_im> = 0
    <CircuitType> = 1
  <EndCircuit>
[NumPoints] = 25
-10.000000000000002	22.912878474779198	0	0
-10.000000000000002	26.153393661244039	0	0
22.912878474779198	9.9999999999999964	0	0
26.153393661244046	9.9999999999999964	0	0
-38.729833462074168	10.000000000000004	0	0
-26.153393661244042	10.000000000000002	0	0
10	38.729833462074168	0	0
9.9999999999999982	26.153393661244042	0	0
-10	38.729833462074168	0	0
38.729833462074168	9.9999999999999929	0	0
-22.912878474779198	10.000000000000002	0	0
9.9999999999999982	22.912878474779198	0	0
-28.284271247461898	28.284271247461902	0	0
-19.798989873223327	19.798989873223331	0	0
19.798989873223331	19.798989873223327	0	0
28.284271247461902	28.284271247461898	0	0
-10.285240497137339	21.68441440104035	0	1
-23.140992690868121	6.363525538660789	0	1
50	0	0	0
-50	6.1232339957367661e-015	0	0
-6.4278760968653961	-7.6604444311897772	0	0
6.4278760968653916	7.6604444311897817	0	0
25.0000019599441	1.5308083789222279e-015	0	0
-25.000001959944093	4.5924256168145374e-015	0	0
0	0	0	0
[NumSegments] = 18
0	1	-1	0	0	0
2	3	-1	0	0	0
4	5	-1	0	0	0
6	7	-1	0	0	0
1	8	-1	0	0	0
3	9	-1	0	0	0
5	10	-1	0	0	0
7	11	-1	0	0	0
12	13	-1	0	0	0
14	15	-1	0	0	0
17	20	-1	0	0	1
21	16	-1	0	0	1
19	23	-1	2	0	0
23	20	-1	3	0	0
20	24	-1	4	0	0
21	22	-1	3	0	0
22	18	-1	2	0	0
24	21	-1	4	0	0
[NumArcSegments] = 13
11	0	47.156356956403684	5	0	0	0	5
16	17	49.248636704328163	5	0	0	1	5
9	15	30.522487814070089	5	0	0	0	5
15	6	30.522487814070075	5	0	0	0	5
8	12	30.522487814070075	5	0	0	0	5
12	4	30.522487814070075	5	0	0	0	5
3	14	24.075167572361696	5	0	0	0	5
14	7	24.075167572361686	5	0	0	0	5
1	13	24.075167572361664	5	0	0	0	5
13	5	24.075167572361693	5	0	0	0	5
18	19	180	5	1	0	0	1.3
10	23	23.578199999999967	5	0	0	0	5
22	2	23.578199999999967	5	0	0	0	5
[NumHoles] = 0
[NumBlockLabels] = 7
17.399999999999999	28.600000000000001	3	-1	1	0	0	100	0
30	16.5	3	-1	2	0	0	100	0
-30.399999999999999	16.899999999999999	3	-1	2	0	0	-100	0
-17.300000000000001	27.800000000000001	3	-1	1	0	0	-100	0
1.3	36.799999999999997	4	-1	0	0	0	1	0
10.9	24.399999999999999	1	-1	0	0	0	1	0
0.5	10.699999999999999	4	-1	0	0	0	1	0
